1CLE_CLL_A_801.pdb
 OpenBabel10102514253D

 47 50  0  0  1  0  0  0  0  0999 V2000
    2.1580  -15.4310   -3.0010 C   0  0  0  0  0  0  0  0  0  0  0  0
    2.6370  -15.5540   -4.3760 C   0  0  0  0  0  0  0  0  0  0  0  0
    3.2580  -14.3670   -4.9020 C   0  0  1  0  0  0  0  0  0  0  0  0
    4.4840  -13.8700   -4.0780 C   0  0  0  0  0  0  0  0  0  0  0  0
    4.2340  -13.6750   -2.5330 C   0  0  0  0  0  0  0  0  0  0  0  0
    4.7990  -12.8000   -1.9110 C   0  0  0  0  0  0  0  0  0  0  0  0
    4.5640  -12.5870   -0.4620 C   0  0  0  0  0  0  0  0  0  0  0  0
    3.3630  -13.3130    0.1540 C   0  0  2  0  0  0  0  0  0  0  0  0
    2.4230  -13.9300   -0.9760 C   0  0  1  0  0  0  0  0  0  0  0  0
    3.1860  -14.7120   -1.9100 C   0  0  1  0  0  0  0  0  0  0  0  0
    1.1210  -14.5600   -0.2840 C   0  0  0  0  0  0  0  0  0  0  0  0
    0.4680  -13.5540    0.7400 C   0  0  0  0  0  0  0  0  0  0  0  0
    1.4000  -13.1120    1.8480 C   0  0  1  0  0  0  0  0  0  0  0  0
    2.6080  -12.4100    1.2350 C   0  0  1  0  0  0  0  0  0  0  0  0
    3.3380  -11.7100    2.3710 C   0  0  0  0  0  0  0  0  0  0  0  0
    2.1270  -11.3580    3.1330 C   0  0  0  0  0  0  0  0  0  0  0  0
    0.7920  -11.9480    2.6810 C   0  0  2  0  0  0  0  0  0  0  0  0
    1.8650  -14.2870    2.7900 C   0  0  0  0  0  0  0  0  0  0  0  0
    4.0320  -15.8780   -1.2150 C   0  0  0  0  0  0  0  0  0  0  0  0
   -0.2890  -12.2200    3.7160 C   0  0  2  0  0  0  0  0  0  0  0  0
   -1.5310  -12.8190    3.1770 C   0  0  0  0  0  0  0  0  0  0  0  0
   -0.5080  -10.9980    4.5740 C   0  0  0  0  0  0  0  0  0  0  0  0
   -1.4810  -10.9800    5.6900 C   0  0  0  0  0  0  0  0  0  0  0  0
   -2.7000  -10.1760    5.4530 C   0  0  0  0  0  0  0  0  0  0  0  0
   -3.6390   -9.7460    6.5560 C   0  0  0  0  0  0  0  0  0  0  0  0
   -3.8050  -10.7060    7.6650 C   0  0  0  0  0  0  0  0  0  0  0  0
   -4.8140   -8.9530    6.1180 C   0  0  0  0  0  0  0  0  0  0  0  0
    4.0200  -14.1900   -7.0150 C   0  0  0  0  0  0  0  0  0  0  0  0
    4.8100  -14.7290   -8.2830 C   0  0  0  0  0  0  0  0  0  0  0  0
    4.3170  -15.8400   -9.1320 C   0  0  0  0  0  0  0  0  0  0  0  0
    4.8760  -17.1760   -8.8250 C   0  0  0  0  0  0  0  0  0  0  0  0
    5.2940  -17.9910   -9.9840 C   0  0  0  0  0  0  0  0  0  0  0  0
    4.9480  -17.4320  -11.3040 C   0  0  0  0  0  0  0  0  0  0  0  0
    5.4880  -18.4320  -12.3400 C   0  0  0  0  0  0  0  0  0  0  0  0
    5.1460  -18.0900  -13.8040 C   0  0  0  0  0  0  0  0  0  0  0  0
    6.2160  -18.6790  -14.6310 C   0  0  0  0  0  0  0  0  0  0  0  0
    6.1870  -18.5790  -16.0900 C   0  0  0  0  0  0  0  0  0  0  0  0
    5.1430  -17.8680  -16.8450 C   0  0  0  0  0  0  0  0  0  0  0  0
    5.2100  -18.1580  -18.2870 C   0  0  0  0  0  0  0  0  0  0  0  0
    4.6550  -17.1100  -19.1470 C   0  0  0  0  0  0  0  0  0  0  0  0
    4.1190  -15.8460  -18.6710 C   0  0  0  0  0  0  0  0  0  0  0  0
    3.7540  -14.7640  -19.6050 C   0  0  0  0  0  0  0  0  0  0  0  0
    5.0720  -14.2880  -20.2320 C   0  0  0  0  0  0  0  0  0  0  0  0
    5.2530  -12.7610  -19.9710 C   0  0  0  0  0  0  0  0  0  0  0  0
    4.2220  -11.9530  -20.4890 C   0  0  0  0  0  0  0  0  0  0  0  0
    3.7900  -13.0220   -7.1160 O   0  0  0  0  0  0  0  0  0  0  0  0
    3.7110  -14.5550   -6.2060 O   0  0  0  0  0  0  0  0  0  0  0  0
  1  2  1  0  0  0  0
  1 10  1  0  0  0  0
  2  3  1  0  0  0  0
  3  4  1  0  0  0  0
  3 47  1  6  0  0  0
  4  5  1  0  0  0  0
  5  6  2  0  0  0  0
  5 10  1  0  0  0  0
  6  7  1  0  0  0  0
  8  7  1  6  0  0  0
  8  9  1  0  0  0  0
  8 14  1  0  0  0  0
  9 10  1  0  0  0  0
  9 11  1  1  0  0  0
 10 19  1  1  0  0  0
 11 12  1  0  0  0  0
 12 13  1  0  0  0  0
 13 14  1  0  0  0  0
 13 17  1  0  0  0  0
 13 18  1  1  0  0  0
 14 15  1  1  0  0  0
 15 16  1  0  0  0  0
 16 17  1  0  0  0  0
 17 20  1  1  0  0  0
 20 21  1  6  0  0  0
 20 22  1  0  0  0  0
 22 23  1  0  0  0  0
 23 24  2  0  0  0  0
 24 25  1  0  0  0  0
 25 26  1  0  0  0  0
 25 27  1  0  0  0  0
 28 29  1  0  0  0  0
 28 46  2  0  0  0  0
 28 47  1  0  0  0  0
 29 30  1  0  0  0  0
 30 31  1  0  0  0  0
 31 32  2  0  0  0  0
 32 33  1  0  0  0  0
 33 34  1  0  0  0  0
 34 35  1  0  0  0  0
 35 36  1  0  0  0  0
 36 37  2  0  0  0  0
 37 38  1  0  0  0  0
 38 39  1  0  0  0  0
 39 40  2  0  0  0  0
 40 41  1  0  0  0  0
 41 42  1  0  0  0  0
 42 43  1  0  0  0  0
 43 44  1  0  0  0  0
 44 45  1  0  0  0  0
M  END
>  <MODEL>
      12

>  <COMPND>
    1CLE_CLL_A_801 

>  <AUTHOR>
    GENERATED BY OPEN BABEL 3.1.1

>  <MASTER>
        0    0    0    0    0    0    0    0   47    0   47    0

$$$$
