1EIN_PLC_A_601.pdb
 OpenBabel10102514253D

 42 41  0  0  1  0  0  0  0  0999 V2000
  -10.1800   76.4200    6.3580 C   0  0  0  0  0  0  0  0  0  0  0  0
  -10.9390   75.6660    5.2600 C   0  0  1  0  0  0  0  0  0  0  0  0
  -11.8050   76.5830    4.4070 C   0  0  0  0  0  0  0  0  0  0  0  0
   -6.0900   79.0720    6.9720 C   0  0  0  0  0  0  0  0  0  0  0  0
   -4.7730   79.0620    6.1690 C   0  0  0  0  0  0  0  0  0  0  0  0
   -3.2010   80.2990    4.8180 C   0  0  0  0  0  0  0  0  0  0  0  0
   -4.2600   81.2600    6.8340 C   0  0  0  0  0  0  0  0  0  0  0  0
   -5.4800   80.9840    4.9180 C   0  0  0  0  0  0  0  0  0  0  0  0
   -9.4990   73.8980    5.4270 C   0  0  0  0  0  0  0  0  0  0  0  0
   -8.1970   73.2410    4.9420 C   0  0  0  0  0  0  0  0  0  0  0  0
   -8.5560   72.0690    4.0200 C   0  0  0  0  0  0  0  0  0  0  0  0
   -7.3580   71.2470    3.5570 C   0  0  0  0  0  0  0  0  0  0  0  0
   -7.5240   70.6260    2.1600 C   0  0  0  0  0  0  0  0  0  0  0  0
   -6.5080   71.2150    1.1810 C   0  0  0  0  0  0  0  0  0  0  0  0
   -6.9350   72.4020    0.3130 C   0  0  0  0  0  0  0  0  0  0  0  0
   -6.0000   72.4650   -0.9200 C   0  0  0  0  0  0  0  0  0  0  0  0
   -6.4210   73.5720   -1.8660 C   0  0  0  0  0  0  0  0  0  0  0  0
   -6.1250   75.0110   -1.4090 C   0  0  0  0  0  0  0  0  0  0  0  0
   -4.6220   75.2740   -1.1700 C   0  0  0  0  0  0  0  0  0  0  0  0
   -4.2680   76.7620   -1.1250 C   0  0  0  0  0  0  0  0  0  0  0  0
  -13.5840   75.9280    3.0320 C   0  0  0  0  0  0  0  0  0  0  0  0
  -14.2870   76.9210    3.9470 C   0  0  0  0  0  0  0  0  0  0  0  0
  -14.6030   78.2460    3.2420 C   0  0  0  0  0  0  0  0  0  0  0  0
  -14.1700   79.3740    4.2000 C   0  0  0  0  0  0  0  0  0  0  0  0
  -15.1540   80.5320    4.2410 C   0  0  0  0  0  0  0  0  0  0  0  0
  -14.3870   81.8490    4.4150 C   0  0  0  0  0  0  0  0  0  0  0  0
  -14.2700   82.3640    5.8460 C   0  0  0  0  0  0  0  0  0  0  0  0
  -12.8880   82.9420    6.1430 C   0  0  0  0  0  0  0  0  0  0  0  0
  -11.7470   81.9220    6.2120 C   0  0  0  0  0  0  0  0  0  0  0  0
  -10.4940   82.4510    6.9230 C   0  0  0  0  0  0  0  0  0  0  0  0
   -9.8040   81.3980    7.7900 C   0  0  0  0  0  0  0  0  0  0  0  0
   -9.8220   81.6910    9.3000 C   0  0  0  0  0  0  0  0  0  0  0  0
   -9.7970   73.9070    6.6050 O   0  0  0  0  0  0  0  0  0  0  0  0
  -14.1690   75.0090    2.4840 O   0  0  0  0  0  0  0  0  0  0  0  0
  -10.0760   74.7590    4.5620 O   0  0  0  0  0  0  0  0  0  0  0  0
  -12.2740   75.9100    3.2580 O   0  0  0  0  0  0  0  0  0  0  0  0
   -7.4280   76.2160    8.1790 O   0  0  0  0  0  0  0  0  0  0  0  0
   -8.8480   78.4180    7.5810 O   0  0  0  0  0  0  0  0  0  0  0  0
   -8.7770   76.3500    6.0530 O   0  0  0  0  0  0  0  0  0  0  0  0
   -6.8570   78.0420    6.3740 O   0  0  0  0  0  0  0  0  0  0  0  0
   -4.3830   80.3780    5.6790 N   0  3  0  0  0  0  0  0  0  0  0  0
   -7.9190   77.1630    7.1150 P   0  0  2  0  0  0  0  0  0  0  0  0
  1 39  1  0  0  0  0
  2  1  1  1  0  0  0
  2  3  1  0  0  0  0
  2 35  1  0  0  0  0
  3 36  1  0  0  0  0
  4  5  1  0  0  0  0
  4 40  1  0  0  0  0
  5 41  1  0  0  0  0
  6 41  1  0  0  0  0
  7 41  1  0  0  0  0
  8 41  1  0  0  0  0
  9 10  1  0  0  0  0
  9 33  2  0  0  0  0
  9 35  1  0  0  0  0
 10 11  1  0  0  0  0
 11 12  1  0  0  0  0
 12 13  1  0  0  0  0
 13 14  1  0  0  0  0
 14 15  1  0  0  0  0
 15 16  1  0  0  0  0
 16 17  1  0  0  0  0
 17 18  1  0  0  0  0
 18 19  1  0  0  0  0
 19 20  1  0  0  0  0
 21 22  1  0  0  0  0
 21 34  2  0  0  0  0
 21 36  1  0  0  0  0
 22 23  1  0  0  0  0
 23 24  1  0  0  0  0
 24 25  1  0  0  0  0
 25 26  1  0  0  0  0
 26 27  1  0  0  0  0
 27 28  1  0  0  0  0
 28 29  1  0  0  0  0
 29 30  1  0  0  0  0
 30 31  1  0  0  0  0
 31 32  1  0  0  0  0
 38 42  1  0  0  0  0
 39 42  1  0  0  0  0
 40 42  1  0  0  0  0
 42 37  2  1  0  0  0
M  CHG  1  41   1
M  END
>  <MODEL>
      42

>  <COMPND>
    1EIN_PLC_A_601 

>  <AUTHOR>
    GENERATED BY OPEN BABEL 3.1.1

>  <MASTER>
        0    0    0    0    0    0    0    0   42    0   42    0

$$$$
