1GT6_OLA_A_1270.pdb
 OpenBabel10102514253D

 20 19  0  0  0  0  0  0  0  0999 V2000
   13.5060   43.0520    3.0200 C   0  0  0  0  0  0  0  0  0  0  0  0
   13.5690   41.7170    2.5700 O   0  0  0  0  0  0  0  0  0  0  0  0
   13.4130   44.0220    2.1440 O   0  0  0  0  0  0  0  0  0  0  0  0
   13.5190   43.3470    4.4970 C   0  0  0  0  0  0  0  0  0  0  0  0
   14.3440   44.5920    4.7760 C   0  0  0  0  0  0  0  0  0  0  0  0
   13.6840   45.4330    5.8530 C   0  0  0  0  0  0  0  0  0  0  0  0
   14.6190   45.6850    7.0200 C   0  0  0  0  0  0  0  0  0  0  0  0
   13.7970   46.0880    8.2370 C   0  0  0  0  0  0  0  0  0  0  0  0
   14.6580   46.4550    9.4490 C   0  0  0  0  0  0  0  0  0  0  0  0
   13.8290   47.0490   10.5860 C   0  0  0  0  0  0  0  0  0  0  0  0
   14.7550   47.7230   11.4680 C   0  0  0  0  0  0  0  0  0  0  0  0
   14.5930   49.1000   11.9680 C   0  0  0  0  0  0  0  0  0  0  0  0
   14.0180   50.2750   11.1960 C   0  0  0  0  0  0  0  0  0  0  0  0
   13.5490   49.9610    9.7770 C   0  0  0  0  0  0  0  0  0  0  0  0
   13.2380   51.2600    9.0360 C   0  0  0  0  0  0  0  0  0  0  0  0
   12.6440   51.0150    7.6520 C   0  0  0  0  0  0  0  0  0  0  0  0
   12.4560   52.3240    6.8890 C   0  0  0  0  0  0  0  0  0  0  0  0
   11.8850   52.0760    5.4950 C   0  0  0  0  0  0  0  0  0  0  0  0
   11.7100   53.3790    4.7230 C   0  0  0  0  0  0  0  0  0  0  0  0
   11.1510   53.1200    3.3280 C   0  0  0  0  0  0  0  0  0  0  0  0
  1  2  2  0  0  0  0
  1  3  1  0  0  0  0
  1  4  1  0  0  0  0
  4  5  1  0  0  0  0
  5  6  1  0  0  0  0
  6  7  1  0  0  0  0
  7  8  1  0  0  0  0
  8  9  1  0  0  0  0
  9 10  1  0  0  0  0
 10 11  1  0  0  0  0
 11 12  2  0  0  0  0
 12 13  1  0  0  0  0
 13 14  1  0  0  0  0
 14 15  1  0  0  0  0
 15 16  1  0  0  0  0
 16 17  1  0  0  0  0
 17 18  1  0  0  0  0
 18 19  1  0  0  0  0
 19 20  1  0  0  0  0
M  END
>  <MODEL>
      40

>  <COMPND>
    1GT6_OLA_A_1270 

>  <AUTHOR>
    GENERATED BY OPEN BABEL 3.1.1

>  <MASTER>
        0    0    0    0    0    0    0    0   20    0   20    0

$$$$
