1K8Q_C11_A_2001.pdb
 OpenBabel10102514253D

 18 17  0  0  0  0  0  0  0  0999 V2000
   31.4480   81.1770   23.2190 C   0  0  0  0  0  0  0  0  0  0  0  0
   30.6540   80.6960   24.4260 C   0  0  0  0  0  0  0  0  0  0  0  0
   30.4810   81.8410   25.4340 C   0  0  0  0  0  0  0  0  0  0  0  0
   30.9170   81.3790   26.8270 C   0  0  0  0  0  0  0  0  0  0  0  0
   31.4110   82.5740   27.6400 C   0  0  0  0  0  0  0  0  0  0  0  0
   32.7510   82.2330   28.2920 C   0  0  0  0  0  0  0  0  0  0  0  0
   33.5130   83.5170   28.6330 C   0  0  0  0  0  0  0  0  0  0  0  0
   35.0140   83.3150   28.4050 C   0  0  0  0  0  0  0  0  0  0  0  0
   35.4540   84.1550   27.2110 C   0  0  0  0  0  0  0  0  0  0  0  0
   36.6430   85.0260   27.5880 C   0  0  0  0  0  0  0  0  0  0  0  0
   37.2470   85.6420   26.3270 C   0  0  0  0  0  0  0  0  0  0  0  0
   32.0270   80.1670   22.1010 P   0  0  2  0  0  0  0  0  0  0  0  0
   31.7490   78.6410   22.4980 O   0  0  0  0  0  0  0  0  0  0  0  0
   33.6230   80.4210   21.8780 O   0  0  0  0  0  0  0  0  0  0  0  0
   34.6110   80.0400   22.8330 C   0  0  0  0  0  0  0  0  0  0  0  0
   35.7930   80.9610   22.6090 C   0  0  0  0  0  0  0  0  0  0  0  0
   36.0930   81.7120   23.9090 C   0  0  0  0  0  0  0  0  0  0  0  0
   37.5810   82.0580   23.9870 C   0  0  0  0  0  0  0  0  0  0  0  0
  1  2  1  0  0  0  0
  1 12  1  0  0  0  0
  2  3  1  0  0  0  0
  3  4  1  0  0  0  0
  4  5  1  0  0  0  0
  5  6  1  0  0  0  0
  6  7  1  0  0  0  0
  7  8  1  0  0  0  0
  8  9  1  0  0  0  0
  9 10  1  0  0  0  0
 10 11  1  0  0  0  0
 12 13  2  1  0  0  0
 12 14  1  0  0  0  0
 14 15  1  0  0  0  0
 15 16  1  0  0  0  0
 16 17  1  0  0  0  0
 17 18  1  0  0  0  0
M  END
>  <MODEL>
      11

>  <COMPND>
    1K8Q_C11_A_2001 

>  <AUTHOR>
    GENERATED BY OPEN BABEL 3.1.1

>  <MASTER>
        0    0    0    0    0    0    0    0   18    0   18    0

$$$$
