1LLF_F23_A_800.pdb
 OpenBabel10102514253D

 25 24  0  0  0  0  0  0  0  0999 V2000
   -2.6060   -0.4460   13.9520 O   0  0  0  0  0  0  0  0  0  0  0  0
   -3.0130    0.5860   15.7190 O   0  0  0  0  0  0  0  0  0  0  0  0
   -3.1360    0.4680   14.5610 C   0  0  0  0  0  0  0  0  0  0  0  0
   -4.0260    1.3960   13.9210 C   0  0  0  0  0  0  0  0  0  0  0  0
   -3.3370    2.4440   13.1360 C   0  0  0  0  0  0  0  0  0  0  0  0
   -4.1960    3.6550   13.0040 C   0  0  0  0  0  0  0  0  0  0  0  0
   -3.9310    4.5270   14.1810 C   0  0  0  0  0  0  0  0  0  0  0  0
   -4.7070    5.8070   14.2380 C   0  0  0  0  0  0  0  0  0  0  0  0
   -4.3670    6.6150   15.4550 C   0  0  0  0  0  0  0  0  0  0  0  0
   -5.1430    6.2330   16.6680 C   0  0  0  0  0  0  0  0  0  0  0  0
   -4.9240    6.6840   18.0480 C   0  0  0  0  0  0  0  0  0  0  0  0
   -5.8190    7.8710   18.4440 C   0  0  0  0  0  0  0  0  0  0  0  0
   -5.0980    9.0860   17.9570 C   0  0  0  0  0  0  0  0  0  0  0  0
   -5.8080   10.3310   17.7680 C   0  0  0  0  0  0  0  0  0  0  0  0
   -6.1620   11.0060   19.0810 C   0  0  0  0  0  0  0  0  0  0  0  0
   -6.5990   12.4310   18.7450 C   0  0  0  0  0  0  0  0  0  0  0  0
   -5.4040   13.3650   18.4090 C   0  0  0  0  0  0  0  0  0  0  0  0
   -5.9710   14.7830   18.2210 C   0  0  0  0  0  0  0  0  0  0  0  0
   -4.8650   15.8340   17.9550 C   0  0  0  0  0  0  0  0  0  0  0  0
   -4.4010   15.8320   16.4790 C   0  0  0  0  0  0  0  0  0  0  0  0
   -5.3260   16.6070   15.5020 C   0  0  0  0  0  0  0  0  0  0  0  0
   -4.7670   16.6290   14.1290 C   0  0  0  0  0  0  0  0  0  0  0  0
   -3.6270   17.6670   13.9670 C   0  0  0  0  0  0  0  0  0  0  0  0
   -3.3270   17.9260   12.4730 C   0  0  0  0  0  0  0  0  0  0  0  0
   -2.0100   18.7170   12.3580 C   0  0  0  0  0  0  0  0  0  0  0  0
  1  3  2  0  0  0  0
  2  3  1  0  0  0  0
  3  4  1  0  0  0  0
  4  5  1  0  0  0  0
  5  6  1  0  0  0  0
  6  7  1  0  0  0  0
  7  8  1  0  0  0  0
  8  9  1  0  0  0  0
  9 10  1  0  0  0  0
 10 11  1  0  0  0  0
 11 12  1  0  0  0  0
 12 13  1  0  0  0  0
 13 14  1  0  0  0  0
 14 15  1  0  0  0  0
 15 16  1  0  0  0  0
 16 17  1  0  0  0  0
 17 18  1  0  0  0  0
 18 19  1  0  0  0  0
 19 20  1  0  0  0  0
 20 21  1  0  0  0  0
 21 22  1  0  0  0  0
 22 23  1  0  0  0  0
 23 24  1  0  0  0  0
 24 25  1  0  0  0  0
M  END
>  <MODEL>
      20

>  <COMPND>
    1LLF_F23_A_800 

>  <AUTHOR>
    GENERATED BY OPEN BABEL 3.1.1

>  <MASTER>
        0    0    0    0    0    0    0    0   25    0   25    0

$$$$
