1LPA_PLC_B_452.pdb
 OpenBabel10102514253D

 42 41  0  0  1  0  0  0  0  0999 V2000
   10.4070   23.4890   47.8000 C   0  0  0  0  0  0  0  0  0  0  0  0
   10.8920   24.7690   47.0310 C   0  0  1  0  0  0  0  0  0  0  0  0
   11.0990   25.7550   48.1930 C   0  0  0  0  0  0  0  0  0  0  0  0
   10.6350   19.4020   50.3280 C   0  0  0  0  0  0  0  0  0  0  0  0
   11.6360   18.5070   49.5510 C   0  0  0  0  0  0  0  0  0  0  0  0
   13.6080   19.2860   50.6750 C   0  0  0  0  0  0  0  0  0  0  0  0
   13.8000   17.9930   48.6630 C   0  0  0  0  0  0  0  0  0  0  0  0
   12.9750   20.2430   48.5750 C   0  0  0  0  0  0  0  0  0  0  0  0
   11.9730   23.3030   45.4200 C   0  0  0  0  0  0  0  0  0  0  0  0
   12.2250   21.9430   46.1580 C   0  0  0  0  0  0  0  0  0  0  0  0
   12.7110   21.0030   45.0390 C   0  0  0  0  0  0  0  0  0  0  0  0
   13.7610   20.0120   45.5230 C   0  0  0  0  0  0  0  0  0  0  0  0
   13.5860   18.9270   44.4640 C   0  0  0  0  0  0  0  0  0  0  0  0
   14.2740   17.6010   44.8450 C   0  0  0  0  0  0  0  0  0  0  0  0
   15.4410   17.4790   43.8150 C   0  0  0  0  0  0  0  0  0  0  0  0
   16.5290   16.3900   44.1170 C   0  0  0  0  0  0  0  0  0  0  0  0
   17.7950   16.5690   43.1990 C   0  0  0  0  0  0  0  0  0  0  0  0
   17.6260   16.5470   41.6250 C   0  0  0  0  0  0  0  0  0  0  0  0
   17.2490   15.2120   40.8900 C   0  0  0  0  0  0  0  0  0  0  0  0
   17.6830   15.3980   39.4040 C   0  0  0  0  0  0  0  0  0  0  0  0
   10.2130   26.6670   50.1510 C   0  0  0  0  0  0  0  0  0  0  0  0
    9.8220   25.5130   51.0970 C   0  0  0  0  0  0  0  0  0  0  0  0
    8.4820   25.8710   51.7260 C   0  0  0  0  0  0  0  0  0  0  0  0
    8.8750   25.9760   53.1840 C   0  0  0  0  0  0  0  0  0  0  0  0
    8.5490   24.6290   53.8570 C   0  0  0  0  0  0  0  0  0  0  0  0
    9.1700   23.4090   53.1290 C   0  0  0  0  0  0  0  0  0  0  0  0
    9.1440   22.2120   54.1030 C   0  0  0  0  0  0  0  0  0  0  0  0
   10.4760   22.2090   54.8780 C   0  0  0  0  0  0  0  0  0  0  0  0
   10.2720   21.2890   56.0750 C   0  0  0  0  0  0  0  0  0  0  0  0
   10.3050   19.8330   55.5860 C   0  0  0  0  0  0  0  0  0  0  0  0
    9.4610   19.0010   56.5980 C   0  0  0  0  0  0  0  0  0  0  0  0
    9.0740   17.6070   56.0170 C   0  0  0  0  0  0  0  0  0  0  0  0
   11.8090   23.2740   44.2000 O   0  0  0  0  0  0  0  0  0  0  0  0
   10.6960   27.7350   50.5920 O   0  0  0  0  0  0  0  0  0  0  0  0
   11.9390   24.6100   46.0990 O   0  0  0  0  0  0  0  0  0  0  0  0
    9.9920   26.5020   48.7420 O   0  0  0  0  0  0  0  0  0  0  0  0
   11.1380   21.8460   51.2490 O   0  0  0  0  0  0  0  0  0  0  0  0
    9.0510   22.5750   50.0880 O   0  0  0  0  0  0  0  0  0  0  0  0
   11.2420   22.8830   48.8270 O   0  0  0  0  0  0  0  0  0  0  0  0
   10.2780   20.4430   49.4130 O   0  0  0  0  0  0  0  0  0  0  0  0
   13.0120   19.0090   49.3710 N   0  3  0  0  0  0  0  0  0  0  0  0
   10.4190   21.9700   49.9430 P   0  0  1  0  0  0  0  0  0  0  0  0
  1 39  1  0  0  0  0
  2  1  1  1  0  0  0
  2  3  1  0  0  0  0
  2 35  1  0  0  0  0
  3 36  1  0  0  0  0
  4  5  1  0  0  0  0
  4 40  1  0  0  0  0
  5 41  1  0  0  0  0
  6 41  1  0  0  0  0
  7 41  1  0  0  0  0
  8 41  1  0  0  0  0
  9 10  1  0  0  0  0
  9 33  2  0  0  0  0
  9 35  1  0  0  0  0
 10 11  1  0  0  0  0
 11 12  1  0  0  0  0
 12 13  1  0  0  0  0
 13 14  1  0  0  0  0
 14 15  1  0  0  0  0
 15 16  1  0  0  0  0
 16 17  1  0  0  0  0
 17 18  1  0  0  0  0
 18 19  1  0  0  0  0
 19 20  1  0  0  0  0
 21 22  1  0  0  0  0
 21 34  2  0  0  0  0
 21 36  1  0  0  0  0
 22 23  1  0  0  0  0
 23 24  1  0  0  0  0
 24 25  1  0  0  0  0
 25 26  1  0  0  0  0
 26 27  1  0  0  0  0
 27 28  1  0  0  0  0
 28 29  1  0  0  0  0
 29 30  1  0  0  0  0
 30 31  1  0  0  0  0
 31 32  1  0  0  0  0
 38 42  1  0  0  0  0
 39 42  1  0  0  0  0
 40 42  1  0  0  0  0
 42 37  2  1  0  0  0
M  CHG  1  41   1
M  END
>  <MODEL>
      43

>  <COMPND>
    1LPA_PLC_B_452 

>  <AUTHOR>
    GENERATED BY OPEN BABEL 3.1.1

>  <MASTER>
        0    0    0    0    0    0    0    0   42    0   42    0

$$$$
