1W52_DDQ_X_501.pdb
 OpenBabel10102514253D

 14 13  0  0  0  0  0  0  0  0999 V2000
   11.0000  114.8260   15.8530 N   0  3  0  0  0  0  0  0  0  0  0  0
   11.0080  116.1070   15.9380 O   0  5  0  0  0  0  0  0  0  0  0  0
    9.8470  114.3020   15.0220 C   0  0  0  0  0  0  0  0  0  0  0  0
   12.3540  114.3340   15.3090 C   0  0  0  0  0  0  0  0  0  0  0  0
   10.6970  114.5030   17.2870 C   0  0  0  0  0  0  0  0  0  0  0  0
    9.3790  115.1570   17.7420 C   0  0  0  0  0  0  0  0  0  0  0  0
    9.6210  116.1910   18.8220 C   0  0  0  0  0  0  0  0  0  0  0  0
    8.6320  116.0610   19.9820 C   0  0  0  0  0  0  0  0  0  0  0  0
    9.3250  116.3760   21.2840 C   0  0  0  0  0  0  0  0  0  0  0  0
    8.2840  116.6280   22.3410 C   0  0  0  0  0  0  0  0  0  0  0  0
    8.9370  116.5630   23.7180 C   0  0  0  0  0  0  0  0  0  0  0  0
    7.9090  116.7280   24.8450 C   0  0  0  0  0  0  0  0  0  0  0  0
    7.8550  118.1680   25.3840 C   0  0  0  0  0  0  0  0  0  0  0  0
    7.0040  119.1740   24.5680 C   0  0  0  0  0  0  0  0  0  0  0  0
  1  2  1  0  0  0  0
  1  3  1  0  0  0  0
  1  4  1  0  0  0  0
  1  5  1  0  0  0  0
  5  6  1  0  0  0  0
  6  7  1  0  0  0  0
  7  8  1  0  0  0  0
  8  9  1  0  0  0  0
  9 10  1  0  0  0  0
 10 11  1  0  0  0  0
 11 12  1  0  0  0  0
 12 13  1  0  0  0  0
 13 14  1  0  0  0  0
M  CHG  2   1   1   2  -1
M  END
>  <MODEL>
      15

>  <COMPND>
    1W52_DDQ_X_501 

>  <AUTHOR>
    GENERATED BY OPEN BABEL 3.1.1

>  <MASTER>
        0    0    0    0    0    0    0    0   14    0   14    0

$$$$
