1YCD_LI5_A_800.pdb
 OpenBabel10102514253D

 14 13  0  0  1  0  0  0  0  0999 V2000
   20.8730   44.8420   60.0770 O   0  0  0  0  0  0  0  0  0  0  0  0
   19.9920   44.8900   61.2910 P   0  0  1  0  0  0  0  0  0  0  0  0
   20.6240   45.4700   62.5620 O   0  0  0  0  0  0  0  0  0  0  0  0
   18.6250   45.6650   60.9630 O   0  0  0  0  0  0  0  0  0  0  0  0
   17.9560   46.3220   62.0540 C   0  0  0  0  0  0  0  0  0  0  0  0
   18.0310   47.8510   61.9840 C   0  0  2  0  0  0  0  0  0  0  0  0
   17.6300   48.3510   60.6970 O   0  0  0  0  0  0  0  0  0  0  0  0
   19.4130   48.3550   62.3510 C   0  0  0  0  0  0  0  0  0  0  0  0
   19.6470   48.8530   63.5830 C   0  0  0  0  0  0  0  0  0  0  0  0
   18.6360   48.9020   64.4600 O   0  0  0  0  0  0  0  0  0  0  0  0
   20.8630   49.3050   63.9350 C   0  0  0  0  0  0  0  0  0  0  0  0
   21.8780   49.2660   63.0740 O   0  0  0  0  0  0  0  0  0  0  0  0
   21.0790   49.8130   65.1590 C   0  0  0  0  0  0  0  0  0  0  0  0
   22.4410   50.3280   65.5720 C   0  0  0  0  0  0  0  0  0  0  0  0
  2  1  1  6  0  0  0
  2  3  2  0  0  0  0
  2  4  1  0  0  0  0
  4  5  1  0  0  0  0
  5  6  1  0  0  0  0
  6  7  1  6  0  0  0
  6  8  1  0  0  0  0
  8  9  1  0  0  0  0
  9 10  2  0  0  0  0
  9 11  1  0  0  0  0
 11 12  2  0  0  0  0
 11 13  1  0  0  0  0
 13 14  1  0  0  0  0
M  END
>  <MODEL>
      25

>  <COMPND>
    1YCD_LI5_A_800 

>  <AUTHOR>
    GENERATED BY OPEN BABEL 3.1.1

>  <MASTER>
        0    0    0    0    0    0    0    0   14    0   14    0

$$$$
